&share
 wrf_core = 'ARW',
 max_dom = 2,
 start_date = '2012-06-01_00:00:00','2012-06-01_00:00:00',
 end_date   = '2012-08-01_00:00:00','2012-08-01_00:00:00',
 interval_seconds = 10800
 io_form_geogrid = 2,
/

&geogrid
 parent_id         =   1,   1,
 parent_grid_ratio =   1,   3,
 i_parent_start    =   1,  92,
 j_parent_start    =   1,  45,
 e_we              =   180, 130,
 e_sn              =   140,  103,
 geog_data_res     = 'modis_30s+2m','modis_30s+2m',
 dx = 15000,
 dy = 15000,
 map_proj = 'lambert',
 ref_lat   =  40.0,
 ref_lon   = -110.000,
 truelat1  =  30.0,
 truelat2  =  60.0,
 stand_lon = -105.0,
 geog_data_path = '/glade/p/work/wrfhelp/WPS_GEOG/'
/

&ungrib
 out_format = 'WPS',
 prefix = 'FILE',
/

&metgrid
 fg_name = 'FILE'
 io_form_metgrid = 2, 
/
