&jules_input_grid
nx=40,
ny=40,
time_dim_name='time',
/
&jules_latlon
file='/users/ar15645/work/regional_simulations/data/grid_lat_lon.nc',
lat_name='latitude',
lon_name='longitude',
/
&jules_land_frac
file='/users/ar15645/work/regional_simulations/data/land_fraction.nc',
land_frac_name='land_fraction'
/
&jules_model_grid
force_1d_grid=.false.,
land_only=.false.,
use_subgrid=.false.,
/
&jules_surf_hgt
zero_height=.true.,
/
