&jules_frac
file='./static_input.nc'
frac_name='tile_frac'
/
&jules_soil_props
file='./static_input.nc'
const_z=.false.,
nvars=9,
use_file=9*.true.,
var='albsoil','b','hcap','hcon','satcon','sathh','sm_crit','sm_sat','sm_wilt',
var_name='albsoil','b','hcap','hcon','satcon','sath','sm_crit','sm_sat','sm_wilt',
/
&jules_agric
/
&jules_co2
/
&jules_top
zw_max=15.0,
ti_max=10.0,
ti_wetl=2.0,
/
