&jules_input_grid
nx=3,
ny=5,
time_dim_name='time',
/
&jules_latlon
file='./static_input.nc',
lat_name='latitude',
lon_name='longitude',
/
&jules_land_frac
file='./static_input.nc',
land_frac_name='land_mask',
/
&jules_model_grid
force_1d_grid=.false.,
land_only=.true.,
use_subgrid=.false.,
/
&jules_surf_hgt
zero_height=.true.,
/
