   957.800  304.450   16.000   350.0
     250.00      304.46       16.00       -2.50        9.60
     750.00      304.49       16.00        1.80       13.00
    1250.00      306.64       13.50        5.60       14.40
    1750.00      307.80       11.20        8.70       14.80
    2250.00      309.64        8.17       10.90       15.20
    2750.00      312.02        4.44       12.20       15.60
    3250.00      313.91        2.93       12.90       15.80
    3750.00      315.33        2.28       14.90       15.80
    4250.00      316.16        2.43       16.40       15.70
    4750.00      318.39        0.90       18.30       15.70
    5250.00      320.61        0.60       20.10       15.30
    5750.00      322.14        0.48       22.20       15.30
    6250.00      323.98        0.40       25.20       16.10
    6750.00      326.50        0.30       26.50       15.90
    7250.00      328.59        0.23       27.90       15.60
    7750.00      329.09        0.19       29.60       15.20
    8250.00      329.99        0.15       29.90       15.60
    8750.00      330.84        0.11       28.10       17.50
    9250.00      332.02        0.07       27.00       17.90
    9750.00      333.96        0.06       27.40       14.50
   10250.00      336.02        0.04       28.30       14.60
   10750.00      337.89        0.03       28.20       15.10
   11250.00      340.26        0.02       28.40       15.90
   11750.00      342.24        0.01       28.30       16.80
   12250.00      344.95        0.00       27.70       17.30
   12750.00      349.39        0.00       27.00       17.60
   13250.00      354.21        0.00       25.90       17.20
   13750.00      359.73        0.00       24.20       14.70
   14250.00      374.07        0.00       22.80       11.90
   14750.00      388.79        0.00       22.80       11.90
   15250.00      393.76        0.00       22.80       11.90
   15750.00      402.68        0.00       22.80       11.90
   16250.00      411.73        0.00       22.80       11.90
   16750.00      421.77        0.00       22.80       11.90
   17250.00      431.00        0.00       22.80       11.90
   17750.00      441.00        0.00       22.80       11.90
   18750.00      451.00        0.00       22.80       11.90
