&jules_frac
file='./static_input.nc',
frac_name='tile_frac',
/
&jules_soil_props
file='./static_input.nc',
const_z=.false.,
nvars=9,
use_file=9*.true.,
var='albsoil','b','hcap','hcon','satcon','sathh','sm_crit','sm_sat','sm_wilt',
var_name='albsoil','b','hcap','hcon','satcon','sathh','sm_crit','sm_sat','sm_wilt',
/
&jules_agric
/
&jules_rivers_props
rivers_reglatlon=.false.,
rivers_regrid=.false.,
x_dim_name='x',
y_dim_name='y',
nx=70,
ny=40,
const_val=0,0,0,
nvars=4,
use_file=4*.true.,
file='./static_input.nc',
var='latitude_2d','longitude_2d','direction',
var_name='latitude2D','longitude2D','flowDir',
/
&jules_co2
/
