&jules_drive
data_end='2011-01-01 00:00:00',
data_period=3600,
data_start='2006-01-01 00:00:00',
file='forcing_2006_2011.nc',
interp=8*'nf',
l_daily_disagg=.false.,
l_imogen=.false.,
nvars=8,
read_list=.false.,
tpl_name='',
var='sw_down','lw_down','tot_rain','tot_snow','t','wind',
'pstar','q',
var_name='sw_down','lw_down','tot_rain','tot_snow','t','wind',
'pstar','q',
z1_tq_vary=.false.,
/
