&jules_input_grid
x_dim_name='x',
y_dim_name='y',
time_dim_name='time',
nx=5,
ny=5,
grid_is_1d=.false.,
/
&jules_latlon
file='static_input.nc',
lat_name='latitude',
lon_name='longitude',
/
&jules_land_frac
file='static_input.nc',
land_frac_name='land_mask',
/
&jules_model_grid
force_1d_grid=.true.,
land_only=.false.,
use_subgrid=.false.,
/
&jules_surf_hgt
zero_height=.true.,
/
