&jules_to_dart_nml
   jules_to_dart_output_file      = 'dart_ics',
   /

