&CAL_NML
 THECALENDAR     = 'gregorian'
 STARTDATE_1     = 20110101
 STARTDATE_2     = 0
 CALENDARDUMPS   = F
 /
