#
# DART $Id$
#
# *******************
# Calendar Parameters
# *******************
 &CAL_NML
 TheCalendar='gregorian',
 startDate_1=19960101,
 startDate_2=60000,
 &
